ETAM-pdb1mxr-B-LYS-284:ETSH-pdb1mxr-B-CYS-305
     RDKit          3D

 20 18  0  0  0  0  0  0  0  0999 V2000
    1.1949    0.9958   -0.0000 C   0  0  0  0  0  0  0  0  0  0  0  0
    1.9994    0.5114   -0.3170 H   0  0  0  0  0  0  0  0  0  0  0  0
    1.3204    1.3261    0.9256 H   0  0  0  0  0  0  0  0  0  0  0  0
    1.0177    1.8478   -0.6564 H   0  0  0  0  0  0  0  0  0  0  0  0
    0.0000    0.0000    0.0000 C   0  0  0  0  0  0  0  0  0  0  0  0
    0.0900   -0.5604   -0.8161 H   0  0  0  0  0  0  0  0  0  0  0  0
    0.0896   -0.5608    0.8163 H   0  0  0  0  0  0  0  0  0  0  0  0
   -1.1949    0.7494    0.0000 N   0  0  0  0  0  4  0  0  0  0  0  0
   -2.0093    0.1472    0.0232 H   0  0  0  0  0  0  0  0  0  0  0  0
   -1.2474    1.3625    0.8042 H   0  0  0  0  0  0  0  0  0  0  0  0
   -1.2690    1.3278   -0.8282 H   0  0  0  0  0  0  0  0  0  0  0  0
   -3.4139    2.7719   -0.6880 C   0  0  0  0  0  0  0  0  0  0  0  0
   -2.5992    2.7667   -1.2592 H   0  0  0  0  0  0  0  0  0  0  0  0
   -4.0210    3.6404   -0.9434 H   0  0  0  0  0  0  0  0  0  0  0  0
   -3.9935    1.8798   -0.9252 H   0  0  0  0  0  0  0  0  0  0  0  0
   -3.0402    2.8071    0.8171 C   0  0  0  0  0  0  0  0  0  0  0  0
   -3.8339    3.0662    1.3266 H   0  0  0  0  0  0  0  0  0  0  0  0
   -2.6942    1.9265    1.0700 H   0  0  0  0  0  0  0  0  0  0  0  0
   -1.7231    4.0488    1.1479 S   0  0  0  0  0  0  0  0  0  0  0  0
   -1.3245    4.3261    0.2798 H   0  0  0  0  0  0  0  0  0  0  0  0
  1  5  1  0
  5  8  1  0
  1  2  1  0
  1  3  1  0
  1  4  1  0
  5  6  1  0
  5  7  1  0
  8  9  1  0
  8 10  1  0
  8 11  1  0
 12 16  1  0
 16 19  1  0
 12 13  1  0
 12 14  1  0
 12 15  1  0
 16 17  1  0
 16 18  1  0
 19 20  1  0
M  CHG  1   8   1
M  END
>  <PDB_ID>  (1) 
pdb1mxr

>  <RESIDUE_NAME>  (1) 
LYS   CYS

>  <FRAG_NAME>  (1) 
ETAM   ETSH

>  <FRAG_ATOM_NUM>  (1) 
fragi: 11  fragj: 9

>  <atom.prop.CHAIN_ID>  (1) 
A A A A A A A A A A A Z Z Z Z Z Z Z Z Z

>  <atom.prop.IS_HEAVY_ATOM>  (1) 
1 0 0 0 1 0 0 1 0 0 0 1 0 0 0 1 0 0 1 0

>  <DIFUSE_FUNC_ATOM>  (1) 
n/a

>  <FINAL_SINGLE_POINT_ENERGY>  (1) 
0

>  <NONCOV_INTER_ENERGY_QM>  (1) 
0

$$$$
ETAM-pdb5oqd-C-LYS-532:ETSH-pdb5oqd-C-CYS-563
     RDKit          3D

 20 18  0  0  0  0  0  0  0  0999 V2000
    1.2321    0.8737    0.0000 C   0  0  0  0  0  0  0  0  0  0  0  0
    1.2136    1.4536    0.8168 H   0  0  0  0  0  0  0  0  0  0  0  0
    1.2136    1.4539   -0.8165 H   0  0  0  0  0  0  0  0  0  0  0  0
    2.1580    0.2983    0.0002 H   0  0  0  0  0  0  0  0  0  0  0  0
    0.0000    0.0000    0.0000 C   0  0  0  0  0  0  0  0  0  0  0  0
    0.0087   -0.5799   -0.8158 H   0  0  0  0  0  0  0  0  0  0  0  0
    0.0087   -0.5798    0.8166 H   0  0  0  0  0  0  0  0  0  0  0  0
   -1.2321    0.8259    0.0000 N   0  0  0  0  0  4  0  0  0  0  0  0
   -1.3653    1.2271   -0.9059 H   0  0  0  0  0  0  0  0  0  0  0  0
   -2.0191    0.2519    0.2289 H   0  0  0  0  0  0  0  0  0  0  0  0
   -1.1443    1.5559    0.6786 H   0  0  0  0  0  0  0  0  0  0  0  0
    1.9937    4.4990    1.0173 C   0  0  0  0  0  0  0  0  0  0  0  0
    2.3491    4.6896    0.0996 H   0  0  0  0  0  0  0  0  0  0  0  0
    1.9743    5.4320    1.5806 H   0  0  0  0  0  0  0  0  0  0  0  0
    0.9815    4.1080    0.9143 H   0  0  0  0  0  0  0  0  0  0  0  0
    2.8988    3.4698    1.6986 C   0  0  0  0  0  0  0  0  0  0  0  0
    2.9548    3.7002    2.6684 H   0  0  0  0  0  0  0  0  0  0  0  0
    2.4777    2.5696    1.5915 H   0  0  0  0  0  0  0  0  0  0  0  0
    4.5764    3.3951    1.0332 S   0  0  0  0  0  0  0  0  0  0  0  0
    4.9104    2.4533    1.0762 H   0  0  0  0  0  0  0  0  0  0  0  0
  1  5  1  0
  5  8  1  0
  1  2  1  0
  1  3  1  0
  1  4  1  0
  5  6  1  0
  5  7  1  0
  8  9  1  0
  8 10  1  0
  8 11  1  0
 12 16  1  0
 16 19  1  0
 12 13  1  0
 12 14  1  0
 12 15  1  0
 16 17  1  0
 16 18  1  0
 19 20  1  0
M  CHG  1   8   1
M  END
>  <PDB_ID>  (2) 
pdb5oqd

>  <RESIDUE_NAME>  (2) 
LYS   CYS

>  <FRAG_NAME>  (2) 
ETAM   ETSH

>  <FRAG_ATOM_NUM>  (2) 
fragi: 11  fragj: 9

>  <atom.prop.CHAIN_ID>  (2) 
A A A A A A A A A A A Z Z Z Z Z Z Z Z Z

>  <atom.prop.IS_HEAVY_ATOM>  (2) 
1 0 0 0 1 0 0 1 0 0 0 1 0 0 0 1 0 0 1 0

>  <DIFUSE_FUNC_ATOM>  (2) 
n/a

>  <FINAL_SINGLE_POINT_ENERGY>  (2) 
0

>  <NONCOV_INTER_ENERGY_QM>  (2) 
0

$$$$
ETAM-pdb4wne-A-LYS-340:ETSH-pdb4wne-A-CYS-318
     RDKit          3D

 20 18  0  0  0  0  0  0  0  0999 V2000
    1.2325    0.8747    0.0000 C   0  0  0  0  0  0  0  0  0  0  0  0
    1.2146    1.4533    0.8164 H   0  0  0  0  0  0  0  0  0  0  0  0
    1.2139    1.4547   -0.8162 H   0  0  0  0  0  0  0  0  0  0  0  0
    2.1574    0.2980   -0.0005 H   0  0  0  0  0  0  0  0  0  0  0  0
    0.0000    0.0000    0.0000 C   0  0  0  0  0  0  0  0  0  0  0  0
    0.0078   -0.5787   -0.8169 H   0  0  0  0  0  0  0  0  0  0  0  0
    0.0079   -0.5791    0.8163 H   0  0  0  0  0  0  0  0  0  0  0  0
   -1.2325    0.8277    0.0000 N   0  0  0  0  0  4  0  0  0  0  0  0
   -1.2801    1.3554   -0.8469 H   0  0  0  0  0  0  0  0  0  0  0  0
   -2.0336    0.2324    0.0679 H   0  0  0  0  0  0  0  0  0  0  0  0
   -1.2144    1.4521    0.7820 H   0  0  0  0  0  0  0  0  0  0  0  0
    0.7289   -0.3804   -4.7782 C   0  0  0  0  0  0  0  0  0  0  0  0
    0.4664    0.5500   -4.4865 H   0  0  0  0  0  0  0  0  0  0  0  0
   -0.1819   -0.9563   -4.9429 H   0  0  0  0  0  0  0  0  0  0  0  0
    1.3287   -0.2896   -5.6837 H   0  0  0  0  0  0  0  0  0  0  0  0
    1.5594   -1.0170   -3.6566 C   0  0  0  0  0  0  0  0  0  0  0  0
    1.8001   -1.9438   -3.9407 H   0  0  0  0  0  0  0  0  0  0  0  0
    2.3904   -0.4742   -3.5446 H   0  0  0  0  0  0  0  0  0  0  0  0
    0.7167   -1.1064   -2.0636 S   0  0  0  0  0  0  0  0  0  0  0  0
    0.0327   -1.8358   -2.0867 H   0  0  0  0  0  0  0  0  0  0  0  0
  1  5  1  0
  5  8  1  0
  1  2  1  0
  1  3  1  0
  1  4  1  0
  5  6  1  0
  5  7  1  0
  8  9  1  0
  8 10  1  0
  8 11  1  0
 12 16  1  0
 16 19  1  0
 12 13  1  0
 12 14  1  0
 12 15  1  0
 16 17  1  0
 16 18  1  0
 19 20  1  0
M  CHG  1   8   1
M  END
>  <PDB_ID>  (3) 
pdb4wne

>  <RESIDUE_NAME>  (3) 
LYS   CYS

>  <FRAG_NAME>  (3) 
ETAM   ETSH

>  <FRAG_ATOM_NUM>  (3) 
fragi: 11  fragj: 9

>  <atom.prop.CHAIN_ID>  (3) 
A A A A A A A A A A A Z Z Z Z Z Z Z Z Z

>  <atom.prop.IS_HEAVY_ATOM>  (3) 
1 0 0 0 1 0 0 1 0 0 0 1 0 0 0 1 0 0 1 0

>  <DIFUSE_FUNC_ATOM>  (3) 
n/a

>  <FINAL_SINGLE_POINT_ENERGY>  (3) 
0

>  <NONCOV_INTER_ENERGY_QM>  (3) 
0

$$$$
ETAM-pdb3v6e-A-LYS-483:ETSH-pdb3v6e-A-CYS-479
     RDKit          3D

 20 18  0  0  0  0  0  0  0  0999 V2000
    1.2189    0.9163   -0.0000 C   0  0  0  0  0  0  0  0  0  0  0  0
    1.0863    1.6169    0.6958 H   0  0  0  0  0  0  0  0  0  0  0  0
    1.2967    1.3370   -0.8994 H   0  0  0  0  0  0  0  0  0  0  0  0
    2.1372    0.3707    0.2172 H   0  0  0  0  0  0  0  0  0  0  0  0
    0.0000    0.0000    0.0000 C   0  0  0  0  0  0  0  0  0  0  0  0
    0.0142   -0.5556   -0.8158 H   0  0  0  0  0  0  0  0  0  0  0  0
    0.0134   -0.5558    0.8162 H   0  0  0  0  0  0  0  0  0  0  0  0
   -1.2189    0.8544   -0.0000 N   0  0  0  0  0  4  0  0  0  0  0  0
   -1.9527    0.3850    0.4894 H   0  0  0  0  0  0  0  0  0  0  0  0
   -1.0162    1.7221    0.4530 H   0  0  0  0  0  0  0  0  0  0  0  0
   -1.5030    1.0273   -0.9429 H   0  0  0  0  0  0  0  0  0  0  0  0
   -0.0035   -4.1596    2.5600 C   0  0  0  0  0  0  0  0  0  0  0  0
   -0.8772   -4.1420    3.0701 H   0  0  0  0  0  0  0  0  0  0  0  0
    0.7552   -4.6176    3.1945 H   0  0  0  0  0  0  0  0  0  0  0  0
   -0.1667   -4.7174    1.6379 H   0  0  0  0  0  0  0  0  0  0  0  0
    0.4088   -2.7346    2.1931 C   0  0  0  0  0  0  0  0  0  0  0  0
    1.3076   -2.7792    1.7526 H   0  0  0  0  0  0  0  0  0  0  0  0
   -0.2600   -2.3818    1.5341 H   0  0  0  0  0  0  0  0  0  0  0  0
    0.5040   -1.5958    3.5760 S   0  0  0  0  0  0  0  0  0  0  0  0
    1.3772   -1.1042    3.5515 H   0  0  0  0  0  0  0  0  0  0  0  0
  1  5  1  0
  5  8  1  0
  1  2  1  0
  1  3  1  0
  1  4  1  0
  5  6  1  0
  5  7  1  0
  8  9  1  0
  8 10  1  0
  8 11  1  0
 12 16  1  0
 16 19  1  0
 12 13  1  0
 12 14  1  0
 12 15  1  0
 16 17  1  0
 16 18  1  0
 19 20  1  0
M  CHG  1   8   1
M  END
>  <PDB_ID>  (4) 
pdb3v6e

>  <RESIDUE_NAME>  (4) 
LYS   CYS

>  <FRAG_NAME>  (4) 
ETAM   ETSH

>  <FRAG_ATOM_NUM>  (4) 
fragi: 11  fragj: 9

>  <atom.prop.CHAIN_ID>  (4) 
A A A A A A A A A A A Z Z Z Z Z Z Z Z Z

>  <atom.prop.IS_HEAVY_ATOM>  (4) 
1 0 0 0 1 0 0 1 0 0 0 1 0 0 0 1 0 0 1 0

>  <DIFUSE_FUNC_ATOM>  (4) 
n/a

>  <FINAL_SINGLE_POINT_ENERGY>  (4) 
0

>  <NONCOV_INTER_ENERGY_QM>  (4) 
0

$$$$
